REMARK  23 active torsions:
REMARK  status: ('A' for Active; 'I' for Inactive)
REMARK    1  A    between atoms: N_1  and  CA_5 
REMARK    2  A    between atoms: CA_5  and  CB_6 
REMARK    3  A    between atoms: CA_5  and  C_10 
REMARK    4  A    between atoms: CB_6  and  CG1_8 
REMARK       I    between atoms: C_10  and  N_12 
REMARK    5  A    between atoms: N_12  and  CA_14 
REMARK    6  A    between atoms: CA_14  and  C_18 
REMARK    7  A    between atoms: CA_14  and  CB_15 
REMARK    8  A    between atoms: CB_15  and  OG_16 
REMARK       I    between atoms: C_18  and  N_20 
REMARK    9  A    between atoms: N_20  and  CA_22 
REMARK   10  A    between atoms: CA_30  and  CB_31 
REMARK   11  A    between atoms: CB_31  and  CG_32 
REMARK   12  A    between atoms: CG_32  and  CD_33 
REMARK   13  A    between atoms: CD_33  and  NE_34 
REMARK       I    between atoms: NE_34  and  CZ_36 
REMARK       I    between atoms: CZ_36  and  NH2_40 
REMARK       I    between atoms: CZ_36  and  NH1_37 
REMARK   14  A    between atoms: CA_58  and  CB_59 
REMARK   15  A    between atoms: CB_59  and  CG_60 
REMARK   16  A    between atoms: CZ_63  and  OH_64 
REMARK   17  A    between atoms: CA_94  and  CB_95 
REMARK   18  A    between atoms: CB_95  and  CG_96 
REMARK   19  A    between atoms: CA_119  and  C_124 
REMARK       I    between atoms: C_124  and  N_126 
REMARK   20  A    between atoms: N_126  and  CA_128 
REMARK   21  A    between atoms: CA_128  and  C_140 
REMARK   22  A    between atoms: CA_128  and  CB_129 
REMARK   23  A    between atoms: CB_129  and  CG_130 
ROOT
ATOM      1  N   ILE     1       2.478   7.786   4.504  1.00  0.00    -0.066 N 
ATOM      2  H1  ILE     1       3.431   7.789   4.896  1.00  0.00     0.275 HD
ATOM      3  H2  ILE     1       1.809   8.282   5.110  1.00  0.00     0.275 HD
ATOM      4  H3  ILE     1       2.446   8.215   3.568  1.00  0.00     0.275 HD
ENDROOT
BRANCH   1   5
ATOM      5  CA  ILE     1       2.101   6.307   4.227  1.00  0.00     0.278 C 
BRANCH   5   6
ATOM      6  CB  ILE     1       0.644   6.041   3.673  1.00  0.00     0.021 C 
ATOM      7  CG2 ILE     1      -0.327   6.042   4.931  1.00  0.00     0.012 C 
BRANCH   6   8
ATOM      8  CG1 ILE     1       0.186   7.062   2.477  1.00  0.00     0.002 C 
ATOM      9  CD1 ILE     1      -1.337   6.758   2.212  1.00  0.00     0.005 C 
ENDBRANCH   6   8
ENDBRANCH   5   6
BRANCH   5  10
ATOM     10  C   ILE     1       3.110   5.627   3.313  1.00  0.00     0.249 C 
ATOM     11  N   SER     2       3.753   4.577   3.881  1.00  0.00    -0.344 N 
ATOM     12  H   SER     2       3.395   4.189   4.746  1.00  0.00     0.163 HD
ATOM     13  O   ILE     1       3.618   6.133   2.300  1.00  0.00    -0.271 OA
BRANCH  11  14
ATOM     14  CA  SER     2       5.114   3.971   3.503  1.00  0.00     0.200 C 
BRANCH  14  15
ATOM     15  C   SER     2       5.005   3.211   2.165  1.00  0.00     0.243 C 
ATOM     16  N   TH4     3       3.867   2.481   1.925  1.00  0.00    -0.344 N 
ATOM     17  H   TH4     3       3.326   2.385   2.776  1.00  0.00     0.163 HD
ATOM     18  O   SER     2       5.809   3.435   1.269  1.00  0.00    -0.271 OA
BRANCH  16  19
ATOM     19  CA  TH4     3       3.647   1.823   0.659  1.00  0.00     0.205 C 
ATOM     20  CB  TH4     3       2.641   0.608   0.834  1.00  0.00     0.159 C 
ATOM     21  OG1 TH4     3       1.332   1.152   1.137  1.00  0.00    -0.314 OA
ATOM     22  CG2 TH4     3       2.991  -0.306   1.963  1.00  0.00     0.042 C 
ATOM     23  CG  A10     9       0.406   1.279   0.105  1.00  0.00     0.261 C 
ATOM     24  OD1 A10     9       0.640   0.921  -1.050  1.00  0.00    -0.265 OA
ATOM     25  CB  A10     9      -0.862   2.025   0.612  1.00  0.00     0.146 C 
ATOM     26  CA  A10     9      -2.143   1.168   0.646  1.00  0.00     0.185 C 
ATOM     27  N   A10     9      -3.290   2.125   0.651  1.00  0.00    -0.345 N 
ATOM     28  C   A10     9      -2.183   0.284   1.952  1.00  0.00     0.241 C 
ATOM     29  C   SE9     8      -4.481   1.611   0.355  1.00  0.00     0.243 C 
ATOM     30  H   A10     9      -3.143   3.087   0.367  1.00  0.00     0.163 HD
ATOM     31  CA  SE9     8      -5.523   2.705  -0.016  1.00  0.00     0.201 C 
ATOM     32  O   SE9     8      -4.707   0.457   0.298  1.00  0.00    -0.271 OA
ATOM     33  CB  SE9     8      -6.936   2.075  -0.140  1.00  0.00     0.213 C 
ATOM     34  N   SE9     8      -5.119   3.420  -1.275  1.00  0.00    -0.344 N 
ATOM     35  OG  SE9     8      -7.216   1.599   1.191  1.00  0.00    -0.319 OA
ATOM     36  CD  G12    11      -8.272   0.781   1.471  1.00  0.00     0.258 C 
ATOM     37  OE2 G12    11      -9.129   0.581   0.702  1.00  0.00    -0.265 OA
ATOM     38  CG  G12    11      -8.307   0.254   2.872  1.00  0.00     0.113 C 
ATOM     39  CB  G12    11      -8.145  -1.248   2.991  1.00  0.00     0.044 C 
ATOM     40  CA  G12    11      -6.799  -1.824   2.420  1.00  0.00     0.177 C 
ATOM     41  C   G12    11      -6.866  -2.361   0.922  1.00  0.00     0.241 C 
ATOM     42  N   G12    11      -5.594  -1.005   2.717  1.00  0.00    -0.346 N 
ATOM     43  O   G12    11      -7.821  -2.296   0.196  1.00  0.00    -0.271 OA
ATOM     44  N   G13    12      -5.659  -2.563   0.294  1.00  0.00    -0.346 N 
ATOM     45  CA  G13    12      -5.504  -2.857  -1.162  1.00  0.00     0.177 C 
ATOM     46  H   G13    12      -4.803  -2.577   0.836  1.00  0.00     0.163 HD
ATOM     47  CB  G13    12      -4.056  -2.569  -1.692  1.00  0.00     0.044 C 
ATOM     48  CG  G13    12      -3.030  -3.503  -1.001  1.00  0.00     0.105 C 
ATOM     49  CD  G13    12      -1.775  -3.675  -1.687  1.00  0.00     0.217 C 
ATOM     50  NZ  LY6     5      -0.597  -2.919  -1.364  1.00  0.00    -0.361 N 
ATOM     51  OE1 G13    12      -1.634  -4.393  -2.639  1.00  0.00    -0.274 OA
ATOM     52  HZ  LY6     5      -0.647  -2.354  -0.529  1.00  0.00     0.162 HD
ATOM     53  CE  LY6     5       0.735  -3.367  -1.857  1.00  0.00     0.122 C 
ATOM     54  CD  LY6     5       1.188  -2.828  -3.299  1.00  0.00     0.020 C 
ATOM     55  CG  LY6     5       1.206  -1.336  -3.464  1.00  0.00     0.004 C 
ATOM     56  CB  LY6     5       1.898  -0.873  -4.772  1.00  0.00     0.035 C 
ATOM     57  CA  LY6     5       1.816   0.648  -4.974  1.00  0.00     0.176 C 
ATOM     58  C   LY6     5       0.382   1.106  -5.321  1.00  0.00     0.241 C 
ATOM     59  N   LY6     5       2.432   1.556  -3.974  1.00  0.00    -0.346 N 
ATOM     60  N   TYR     6      -0.482   1.579  -4.348  1.00  0.00    -0.346 N 
ATOM     61  O   LY6     5      -0.047   0.821  -6.434  1.00  0.00    -0.271 OA
ATOM     62  H   TYR     6      -0.174   1.672  -3.388  1.00  0.00     0.163 HD
ATOM     63  CA  TYR     6      -1.986   1.765  -4.450  1.00  0.00     0.181 C 
ATOM     64  C   TYR     6      -2.455   2.744  -3.362  1.00  0.00     0.243 C 
ATOM     65  N   PRO     7      -3.337   3.787  -3.662  1.00  0.00    -0.337 N 
ATOM     66  O   TYR     6      -2.061   2.614  -2.179  1.00  0.00    -0.271 OA
ATOM     67  CA  PRO     7      -3.618   4.930  -2.746  1.00  0.00     0.179 C 
ATOM     68  CD  PRO     7      -3.924   3.957  -5.016  1.00  0.00     0.127 C 
ATOM     69  CB  PRO     7      -4.534   5.831  -3.529  1.00  0.00     0.037 C 
ATOM     70  C   PRO     7      -4.156   4.457  -1.375  1.00  0.00     0.241 C 
ATOM     71  CG  PRO     7      -4.930   5.100  -4.814  1.00  0.00     0.022 C 
ATOM     72  O   PRO     7      -3.585   4.700  -0.312  1.00  0.00    -0.271 OA
ATOM     73  H   LY6     5       3.099   1.090  -3.370  1.00  0.00     0.163 HD
ATOM     74  C   ARG     4       2.495   2.931  -3.951  1.00  0.00     0.241 C 
ATOM     75  CA  ARG     4       3.243   3.568  -2.746  1.00  0.00     0.176 C 
ATOM     76  O   ARG     4       1.998   3.533  -4.838  1.00  0.00    -0.271 OA
ATOM     77  N   ARG     4       3.735   2.684  -1.707  1.00  0.00    -0.346 N 
ATOM     78  C   TH4     3       3.257   2.827  -0.423  1.00  0.00     0.243 C 
ATOM     79  H   ARG     4       4.292   1.883  -1.980  1.00  0.00     0.163 HD
ATOM     80  O   TH4     3       2.405   3.693  -0.177  1.00  0.00    -0.271 OA
ATOM     81  C   TRP    10      -4.962  -1.038   3.924  1.00  0.00     0.241 C 
ATOM     82  H   G12    11      -5.023  -0.553   2.013  1.00  0.00     0.163 HD
ATOM     83  O   TRP    10      -5.360  -1.707   4.860  1.00  0.00    -0.271 OA
ATOM     84  CA  TRP    10      -3.640  -0.157   4.074  1.00  0.00     0.181 C 
ATOM     85  N   TRP    10      -3.187   0.612   2.845  1.00  0.00    -0.346 N 
ATOM     86  H   TRP    10      -3.576   1.530   2.665  1.00  0.00     0.163 HD
ATOM     87  H   SE9     8      -5.497   3.152  -2.175  1.00  0.00     0.163 HD
ATOM     88  O   A10     9      -1.590  -0.723   1.931  1.00  0.00    -0.271 OA
BRANCH  45  89
ATOM     89  C   G13    12      -6.028  -4.282  -1.534  1.00  0.00     0.241 C 
ATOM     90  N   TRP    13      -7.074  -4.696  -0.775  1.00  0.00    -0.344 N 
ATOM     91  H   TRP    13      -7.458  -4.032  -0.113  1.00  0.00     0.163 HD
ATOM     92  O   G13    12      -5.758  -4.830  -2.612  1.00  0.00    -0.271 OA
BRANCH  90  93
ATOM     93  CA  TRP    13      -7.781  -6.015  -0.838  1.00  0.00     0.190 C 
BRANCH  93  94
ATOM     94  C   TRP    13      -9.263  -5.839  -0.708  1.00  0.00     0.197 C 
ATOM     95  OXT TRP    13      -9.919  -5.844  -1.746  1.00  0.00    -0.646 OA
ATOM     96  O   TRP    13      -9.808  -5.719   0.418  1.00  0.00    -0.646 OA
ENDBRANCH  93  94
BRANCH  93  97
ATOM     97  CB  TRP    13      -7.226  -6.952   0.260  1.00  0.00     0.077 C 
BRANCH  97  98
ATOM     98  CG  TRP    13      -5.731  -7.100   0.172  1.00  0.00    -0.028 A 
ATOM     99  CD1 TRP    13      -4.990  -7.539  -1.000  1.00  0.00     0.096 A 
ATOM    100  NE1 TRP    13      -3.691  -7.865  -0.663  1.00  0.00    -0.365 N 
ATOM    101  HE1 TRP    13      -3.070  -8.282  -1.342  1.00  0.00     0.165 HD
ATOM    102  CE2 TRP    13      -3.477  -7.501   0.643  1.00  0.00     0.042 A 
ATOM    103  CD2 TRP    13      -4.659  -6.978   1.184  1.00  0.00    -0.002 A 
ATOM    104  CZ2 TRP    13      -2.263  -7.563   1.407  1.00  0.00     0.030 A 
ATOM    105  CE3 TRP    13      -4.682  -6.477   2.513  1.00  0.00     0.014 A 
ATOM    106  CZ3 TRP    13      -3.497  -6.424   3.203  1.00  0.00     0.001 A 
ATOM    107  CH2 TRP    13      -2.256  -6.976   2.683  1.00  0.00     0.002 A 
ENDBRANCH  97  98
ENDBRANCH  93  97
ENDBRANCH  90  93
ENDBRANCH  45  89
BRANCH  63 108
ATOM    108  CB  TYR     6      -2.641   0.341  -4.354  1.00  0.00     0.073 C 
BRANCH 108 109
ATOM    109  CG  TYR     6      -4.172   0.320  -4.508  1.00  0.00    -0.056 A 
ATOM    110  CD2 TYR     6      -4.970   0.222  -3.363  1.00  0.00     0.010 A 
ATOM    111  CE2 TYR     6      -6.399   0.092  -3.449  1.00  0.00     0.037 A 
ATOM    112  CZ  TYR     6      -7.008  -0.141  -4.742  1.00  0.00     0.065 A 
ATOM    113  CE1 TYR     6      -6.217   0.128  -5.942  1.00  0.00     0.037 A 
ATOM    114  CD1 TYR     6      -4.823   0.455  -5.795  1.00  0.00     0.010 A 
BRANCH 112 115
ATOM    115  OH  TYR     6      -8.281  -0.491  -4.887  1.00  0.00    -0.361 OA
ATOM    116  HH  TYR     6      -8.537  -0.731  -3.980  1.00  0.00     0.217 HD
ENDBRANCH 112 115
ENDBRANCH 108 109
ENDBRANCH  63 108
BRANCH  75 117
ATOM    117  CB  ARG     4       4.355   4.587  -3.110  1.00  0.00     0.036 C 
BRANCH 117 118
ATOM    118  CG  ARG     4       4.826   5.444  -1.856  1.00  0.00     0.023 C 
BRANCH 118 119
ATOM    119  CD  ARG     4       5.964   6.447  -2.189  1.00  0.00     0.138 C 
BRANCH 119 120
ATOM    120  NE  ARG     4       7.090   5.814  -2.764  1.00  0.00    -0.227 N 
ATOM    121  HE  ARG     4       6.921   5.326  -3.635  1.00  0.00     0.177 HD
ATOM    122  CZ  ARG     4       8.344   5.928  -2.216  1.00  0.00     0.665 C 
ATOM    123  NH2 ARG     4       9.296   5.112  -2.715  1.00  0.00    -0.235 N 
ATOM    124  NH1 ARG     4       8.622   6.622  -1.110  1.00  0.00    -0.235 N 
ATOM    125 HH21 ARG     4       9.053   4.660  -3.587  1.00  0.00     0.174 HD
ATOM    126 HH22 ARG     4       9.919   4.530  -2.170  1.00  0.00     0.174 HD
ATOM    127 HH11 ARG     4       8.015   7.378  -0.821  1.00  0.00     0.174 HD
ATOM    128 HH12 ARG     4       9.586   6.656  -0.805  1.00  0.00     0.174 HD
ENDBRANCH 119 120
ENDBRANCH 118 119
ENDBRANCH 117 118
ENDBRANCH  75 117
BRANCH  84 129
ATOM    129  CB  TRP    10      -3.648   0.826   5.313  1.00  0.00     0.075 C 
BRANCH 129 130
ATOM    130  CG  TRP    10      -4.704   1.906   5.180  1.00  0.00    -0.028 A 
ATOM    131  CD2 TRP    10      -6.045   1.970   5.622  1.00  0.00    -0.002 A 
ATOM    132  CE3 TRP    10      -6.729   0.975   6.362  1.00  0.00     0.014 A 
ATOM    133  CE2 TRP    10      -6.582   3.215   5.218  1.00  0.00     0.042 A 
ATOM    134  CZ3 TRP    10      -8.070   1.217   6.520  1.00  0.00     0.001 A 
ATOM    135  CH2 TRP    10      -8.740   2.423   6.201  1.00  0.00     0.002 A 
ATOM    136  CZ2 TRP    10      -8.000   3.422   5.532  1.00  0.00     0.030 A 
ATOM    137  NE1 TRP    10      -5.670   3.910   4.418  1.00  0.00    -0.365 N 
ATOM    138  HE1 TRP    10      -5.903   4.700   3.833  1.00  0.00     0.165 HD
ATOM    139  CD1 TRP    10      -4.547   3.111   4.417  1.00  0.00     0.096 A 
ENDBRANCH 129 130
ENDBRANCH  84 129
ENDBRANCH  16  19
ENDBRANCH  14  15
BRANCH  14 140
ATOM    140  CB  SER     2       5.567   2.965   4.583  1.00  0.00     0.199 C 
BRANCH 140 141
ATOM    141  OG  SER     2       4.466   2.023   4.759  1.00  0.00    -0.398 OA
ATOM    142  HG  SER     2       4.819   1.470   5.478  1.00  0.00     0.209 HD
ENDBRANCH 140 141
ENDBRANCH  14 140
ENDBRANCH  11  14
ENDBRANCH   5  10
ENDBRANCH   1   5
TORSDOF 23
